<?xml version="1.0" encoding="utf-8"?>
<!DOCTYPE population SYSTEM "http://www.matsim.org/files/dtd/population_v6.dtd">

<population>

	<attributes>
		<attribute name="coordinateReferenceSystem" class="java.lang.String">Atlantis</attribute>
	</attributes>


<!-- ====================================================================== -->

	<person id="0">
		<plan selected="yes">
			<activity type="h" link="175124041_0" start_time="00:00:00" end_time="08:09:59" >
			</activity>
			<leg mode="car">
			</leg>
			<activity type="w" link="4840070_1_r" end_time="18:10:20" >
			</activity>
			<leg mode="car">
			</leg>
			<activity type="h" link="175124041_0" >
			</activity>
		</plan>

	</person>

<!-- ====================================================================== -->

	<person id="1">
		<plan selected="yes">
			<activity type="h" link="316318950_0" start_time="00:00:00" end_time="07:48:11" >
			</activity>
			<leg mode="car">
			</leg>
			<activity type="w" link="297015459_0" end_time="18:35:52" >
			</activity>
			<leg mode="car">
			</leg>
			<activity type="h" link="316318950_0" >
			</activity>
		</plan>

	</person>

<!-- ====================================================================== -->

	<person id="2">
		<plan selected="yes">
			<activity type="h" link="10690674_0" start_time="00:00:00" end_time="08:34:51" >
			</activity>
			<leg mode="car">
			</leg>
			<activity type="w" link="22662168_0" end_time="18:10:45" >
			</activity>
			<leg mode="car">
			</leg>
			<activity type="h" link="10690674_0" >
			</activity>
		</plan>

	</person>

<!-- ====================================================================== -->

	<person id="3">
		<plan selected="yes">
			<activity type="h" link="311325006_0" start_time="00:00:00" end_time="07:30:27" >
			</activity>
			<leg mode="car">
			</leg>
			<activity type="w" link="350669520_0" end_time="18:26:32" >
			</activity>
			<leg mode="car">
			</leg>
			<activity type="h" link="311325006_0" >
			</activity>
		</plan>

	</person>

<!-- ====================================================================== -->

	<person id="4">
		<plan selected="yes">
			<activity type="h" link="333142110_0_r" start_time="00:00:00" end_time="07:41:08" >
			</activity>
			<leg mode="car">
			</leg>
			<activity type="w" link="25776268_0" end_time="18:15:37" >
			</activity>
			<leg mode="car">
			</leg>
			<activity type="h" link="333142110_0_r" >
			</activity>
		</plan>

	</person>

<!-- ====================================================================== -->

	<person id="5">
		<plan selected="yes">
			<activity type="h" link="146278764_0" start_time="00:00:00" end_time="07:50:05" >
			</activity>
			<leg mode="car">
			</leg>
			<activity type="w" link="28489710_0_r" end_time="18:08:54" >
			</activity>
			<leg mode="car">
			</leg>
			<activity type="h" link="146278764_0" >
			</activity>
		</plan>

	</person>

<!-- ====================================================================== -->

	<person id="6">
		<plan selected="yes">
			<activity type="h" link="244598549_0_r" start_time="00:00:00" end_time="08:20:16" >
			</activity>
			<leg mode="car">
			</leg>
			<activity type="w" link="23167887_0" end_time="17:43:29" >
			</activity>
			<leg mode="car">
			</leg>
			<activity type="h" link="244598549_0_r" >
			</activity>
		</plan>

	</person>

<!-- ====================================================================== -->

	<person id="7">
		<plan selected="yes">
			<activity type="h" link="473757825_0" start_time="00:00:00" end_time="07:59:49" >
			</activity>
			<leg mode="car">
			</leg>
			<activity type="w" link="337770852_0" end_time="18:11:24" >
			</activity>
			<leg mode="car">
			</leg>
			<activity type="h" link="473757825_0" >
			</activity>
		</plan>

	</person>

<!-- ====================================================================== -->

	<person id="8">
		<plan selected="yes">
			<activity type="h" link="365740674_0" start_time="00:00:00" end_time="08:02:32" >
			</activity>
			<leg mode="car">
			</leg>
			<activity type="w" link="245852816_0" end_time="17:34:04" >
			</activity>
			<leg mode="car">
			</leg>
			<activity type="h" link="365740674_0" >
			</activity>
		</plan>

	</person>

<!-- ====================================================================== -->

	<person id="9">
		<plan selected="yes">
			<activity type="h" link="177341816_0" start_time="00:00:00" end_time="07:58:06" >
			</activity>
			<leg mode="car">
			</leg>
			<activity type="w" link="192704464_0" end_time="18:07:39" >
			</activity>
			<leg mode="car">
			</leg>
			<activity type="h" link="177341816_0" >
			</activity>
		</plan>

	</person>

<!-- ====================================================================== -->

</population>
